<?xml version="1.0" encoding="UTF-8"?>

<!-- generated on 2026-02-18 11:24:23.979339 by Eclipse SUMO randomTrips.py v1_26_0+0000-fa7df22d7f1
<configuration>
    <net-file value="map.net.xml"/>
    <route-file value="routes.rou.xml"/>
    <period value="2.0"/>
</configuration>
-->

<!-- generated on 2026-02-18T11:24:23.457441+05:30 by Eclipse SUMO duarouter 1.26.0
<duarouterConfiguration xmlns:xsi="http://www.w3.org/2001/XMLSchema-instance" xsi:noNamespaceSchemaLocation="http://sumo.dlr.de/xsd/duarouterConfiguration.xsd">

    <input>
        <net-file value="map.net.xml"/>
        <route-files value="trips.trips.xml"/>
    </input>

    <output>
        <output-file value="routes.rou.xml"/>
        <alternatives-output value="NUL"/>
    </output>

    <time>
        <begin value="0"/>
        <end value="3600.0"/>
    </time>

    <report>
        <no-warnings value="true"/>
        <ignore-errors value="true"/>
        <no-step-log value="true"/>
    </report>

</duarouterConfiguration>
-->

<routes xmlns:xsi="http://www.w3.org/2001/XMLSchema-instance" xsi:noNamespaceSchemaLocation="http://sumo.dlr.de/xsd/routes_file.xsd">
    <vehicle id="0" depart="0.00">
        <route edges="1467211933 197825162#0 197825162#1 1435259976#2 1021088242#0 1021088242#1 991855037 1089037745#3 1019021463#0 1019021463#1 1436346383 1436346382#0 1436346382#1 1436346382#2 88239056#0 88239056#1 88239056#2 88239056#3 88239056#4 88239056#5 88239056#6 88239056#7 88239056#8 88239056#9 88239056#10 383253303#1 542052316#0 -745182517#2 -1041851496#2 -1041851496#1"/>
    </vehicle>
    <vehicle id="1" depart="2.00">
        <route edges="-623214520#1 -623214520#0 -1011679140#0 -667711311 1019014636 140144915#0 -88388242#6 -88388242#5 -88388242#4 -535181021#2 -607226671#12 -607226671#11 -607226671#10 -607226671#9 -607226671#8 -607226671#7 -607226671#6 -607226671#5 -607226671#4 -607226671#3 -607226671#2 -607226671#1"/>
    </vehicle>
    <vehicle id="2" depart="4.00">
        <route edges="477341706#1 -477341706#1 -477341706#0 1046168955 477341665#0 477341665#1 477341665#2 477341665#3 197827530#2 197827530#3 197827530#4 197827530#5 197827530#6 197827530#7 197827530#8 -1011679136#2 -1011679136#1 -1011679136#0 1011679140#0 1011679140#1 1011679140#2 383253313 1011679139 1019021466 1011679138#0 1011679138#1 1011679138#2 1011679138#3 1011679138#4 -1019043605#1 -1019043605#0 46513486#0"/>
    </vehicle>
    <vehicle id="3" depart="6.00">
        <route edges="744556821#3 744556821#4 744556821#5 744556821#6 1086864394#0 1086864394#1 1086864394#2 1086864394#3 1086864394#4 1086864394#5 1086864394#6 1201447522#0 1201447522#1 1363267149#0 1363267149#1 1363267149#2 -1363267149#2 -1363267149#1"/>
    </vehicle>
    <vehicle id="4" depart="8.00">
        <route edges="-771377084#1 -771377084#0 -734716508#0 -734716509#0 -1086864394#3 -1086864394#2 -1086864394#1 744556822#0 744556822#1 744556822#2 744556821#0 744556821#1 744556821#2 991854148#0 -1042903004"/>
    </vehicle>
    <vehicle id="5" depart="10.00">
        <route edges="-477341709#2 -477341709#1 477341708 477341707#2 477341707#3 -477341706#0 1046168955 477341665#0 477341665#1 477341665#2 477341665#3 197827530#2 197827530#3 197827530#4 197827530#5 197827530#6 197827530#7 197827530#8 1094032211#0 1094032211#1 -197825163#13 -197825163#12 -197825163#11 -197825163#10 -197825163#9 607226672#0 607226672#1 607226672#2 607226672#3 607226672#4 607226672#5 607226672#6 46513832#11 46513832#12 46513832#13 46513832#14 1083508002#0"/>
    </vehicle>
    <vehicle id="6" depart="12.00">
        <route edges="-1041874266#1 -1041874265 -623214520#3 -623214520#2 -623214520#1 -623214520#0 -1011679140#0 1011679136#0 1011679136#1 1011679136#2 -197827530#8 -197827530#7 -197827530#6 -197827530#5 -197827530#4 -197827530#3 -197827530#2 -477341665#3 -477341665#2 -477341665#1 -477341665#0 -1046168955 477341706#0 -477341707#3 -477341707#2 -477341708"/>
    </vehicle>
    <vehicle id="7" depart="14.00">
        <route edges="197825161#0 197825161#1 197825161#2 -448001976#1 -448001976#0 1011679137#1 667711311 1011679140#0 1011679140#1 1011679140#2 -1192804910#1 -1192804910#0 1192804909#0"/>
    </vehicle>
    <vehicle id="8" depart="16.00">
        <route edges="-494080674#1 494080674#1 494080674#2 494080674#3 760082568#0 760082568#1 760082568#2 -542052316#4 -542052316#3 -542052316#2 -542052316#1 -745182517#2 -745182517#1 -745182518#1 1193267970 1373572060#1"/>
    </vehicle>
    <vehicle id="9" depart="18.00">
        <route edges="623214542 829587319 -760446551#1 -760446551#0 -623215347#0 -1046168950 197825161#4 197825161#5 -623214922#1 -1046168949 623215092#0 623215092#1 623215092#2 623215092#3 -759592221 -1011679141#4 -1011679141#3 -1011679141#2 -1011679141#1 -1011679141#0"/>
    </vehicle>
    <vehicle id="10" depart="20.00">
        <route edges="623214529#0 -623214529#0 197827530#6 -623215040 623214813#1 759519031#0 759519031#1 477341671#0"/>
    </vehicle>
    <vehicle id="11" depart="22.00">
        <route edges="-623215371 -623215233#2 -623215233#1 -623215230#1 623214962 -623214957#2 -607226672#0 197825163#9 197825164#0 197825164#1 197825164#2 -197825160#0 623215092#2 623215092#3 -759592221 1011679141#5 -197827530#8 -197827530#7 -197827530#6 -197827530#5 -197827530#4 -197827530#3 -197827530#2 -197827530#1 -197827530#0 1039314823#2 1011679142#0 -383253303#6"/>
    </vehicle>
    <vehicle id="12" depart="24.00">
        <route edges="857261834#1 1108424967 607226671#11 607226671#12 535181021#2 88388242#4 88388242#5 88388242#6 -140144915#0 -1019014636 667711311 1011679136#0 1011679136#1 1011679136#2 -197827530#8 -197827530#7 -197827530#6 -197827530#5 -197827530#4 -197827530#3 -197827530#2 -197827530#1 -197827530#0 1039314823#2 1011679142#0 -383253303#6 -760082569 542052316#5 542052316#6 542052316#7 744510028#0 744510028#1 -754451838 -734392343#6 -734392343#5"/>
    </vehicle>
    <vehicle id="13" depart="26.00">
        <route edges="-1308981285#0 1222442419#0 1222442419#1 1222442419#2 368162328 1039314823#1 197827530#0 197827530#1 197827530#2 197827530#3 197827530#4 197827530#5 197827530#6 197827530#7 197827530#8 -1011679136#2 -1011679136#1 -1011679136#0 1011679140#0 1011679140#1 1011679140#2 383253313 1011679139 1019021466 1011679138#0 1011679138#1 1103780791 -46513486#2 -140144911#2"/>
    </vehicle>
    <vehicle id="14" depart="28.00">
        <route edges="623215223#0 623215223#1 607226671#4 607226671#5 607226671#6 607226671#7 607226671#8 607226671#9 607226671#10 607226671#11 607226671#12 535181021#2 88388242#4 88388242#5 88388242#6 -140144915#0 -1019014636 667711311 1011679140#0 1011679140#1 1011679140#2 -1192804910#1 -1192804910#0 1192804909#0 1192804909#1 1192804909#2 1435259978 1435259975 1436346383 1436346382#0 1436346382#1"/>
    </vehicle>
    <vehicle id="15" depart="30.00">
        <route edges="623214540#1 623214540#2 -623215228#1 -623215228#0 -623214723#4 -623214723#3 -623214723#2 -623214723#1 -623214723#0 -197825161#0 -140144915#0 -1019014636 667711311 1011679136#0 1011679136#1 1011679136#2 -197827530#8 -197827530#7 -197827530#6 -197827530#5 -197827530#4 -197827530#3 -197827530#2 -197827530#1 -197827530#0 1039314823#2 1011679142#0 1011679142#1 197827534#0 1222442417#0 1222442417#1 1222442417#2 1222442417#3 1222442417#4 1222442418#0 1222442418#1 1308981285#0 1308981285#1 1308981285#2 1308981285#3 180240419#0 180240419#1 180240419#2 180240419#3 254466864#0 254466864#1 254466864#2 542052318#0"/>
    </vehicle>
    <vehicle id="16" depart="32.00">
        <route edges="1041874266#1 1041874267 -734691276#0 88239056#2 88239056#3 88239056#4 88239056#5 88239056#6 88239056#7 88239056#8 88239056#9 88239056#10 383253303#1 542052316#0 -745182517#2 -1041851496#2 -1041851496#1 -1041851496#0 771377084#1 991854144"/>
    </vehicle>
    <vehicle id="17" depart="34.00">
        <route edges="-754450658#0 -1363267149#0 -1201447522#1 -1201447522#0 -1086864394#6 -1086864394#5 -1086864394#4 -1086864394#3 -1086864394#2 -1086864394#1 -1086864394#0 -1102868553#4 -1102868553#3 -1102868553#2 -1102868553#1 -1102868553#0 383253303#0 -88239056#10 -88239056#9 -88239056#8 -88239056#7 -88239056#6 -88239056#5 -88239056#4 -88239056#3 -88239056#2 -88239056#1 -88239056#0 1436346382#3 1192804910#0 1192804910#1 383253313 1011679139 1019021466 88388435#0 88388435#1 1019021467 -46513486#6 -46513486#5 313694234#0 313694234#1 1204128470"/>
    </vehicle>
    <vehicle id="18" depart="36.00">
        <route edges="623214892#3 623214892#4 623214892#5 1011679136#0 1011679136#1 1011679136#2 1094032211#0 -1051321870 623214487 623215092#0 623214913 197825164#2 197825160#1"/>
    </vehicle>
    <vehicle id="19" depart="38.00">
        <route edges="623215353 -623215353 -623215351#0 -197825160#1 -197825160#0 623215092#2 623215092#3 -759592221 1011679141#5 -197827530#8 -197827530#7 -197827530#6 -197827530#5 -197827530#4 -197827530#3 -197827530#2 -197827530#1 -197827530#0 1039314823#2 1011679142#0 1011679142#1 197827534#0 1222442417#0 1222442417#1 1222442417#2 134768405#0 134768405#1 134768405#2"/>
    </vehicle>
    <vehicle id="20" depart="40.00">
        <route edges="389715735#3 389715735#4 -734703696#0 384989621#7 384989621#8 -313694234#3 -313694234#2 -313694234#1 -313694234#0 46513486#5 46513486#6 1019021465#0 1019021465#1 1019021465#2 -1467211932 1477359791 1368974881 1435259977 1435259975 96073619 764081939#0 764081939#1 764081939#2 622943507 622943502#0 622943502#1 383253312 1102868553#4 1086864394#0 1086864394#1 1086864394#2 1086864394#3 -1086864394#3"/>
    </vehicle>
    <vehicle id="21" depart="42.00">
        <route edges="-535181021#2 -607226671#12 -607226671#11 -607226671#10 -607226671#9 -607226671#8 -607226671#7 -607226671#6 -607226671#5 -607226671#4 -607226671#3 -607226671#2 -607226671#1 -607226671#0 607226672#6 -46513832#10 -46513832#9 -495426758#4 623215374#0 -623214900#1"/>
    </vehicle>
    <vehicle id="22" depart="44.00">
        <route edges="-1193267970 745182518#1 745182517#1 745182517#2 -542052316#0 -383253303#1 -88239056#10 -88239056#9 -88239056#8 -88239056#7 -88239056#6 -88239056#5 -88239056#4 -88239056#3 -88239056#2 -88239056#1 -88239056#0 1436346382#3 1192804910#0 1192804910#1 383253313 1011679139 1019021466 1011679138#0 88388242#0 88388242#1 88388242#2 88388242#3 -535181021#2 -607226671#12 -607226671#11 -607226671#10 -607226671#9 -607226671#8 -607226671#7 -607226671#6 -607226671#5 -607226671#4 -607226671#3 -607226671#2 -607226671#1 -607226671#0 -607226672#5"/>
    </vehicle>
    <vehicle id="23" depart="46.00">
        <route edges="-134768405#5 -134768405#4 -134768405#3 -134768405#2 -134768405#1 -134768405#0 1222442417#3 103536164#2 1222442419#2 368162328 1039314823#1 197827530#0 197827530#1 197827530#2 197827530#3 197827530#4 197827530#5 197827530#6 197827530#7 197827530#8 1094032211#0 1094032211#1 -197825163#13 -197825163#12 -197825163#11 -197825163#10 -197825163#9 607226672#0 607226672#1 623214733 -623214741#2 -623214741#1"/>
    </vehicle>
    <vehicle id="24" depart="48.00">
        <route edges="1436346382#0 1436346382#1 1436346382#2 88239056#0 88239056#1 88239056#2 88239056#3 88239056#4 88239056#5 88239056#6 88239056#7 88239056#8 -477341704#2 754512656#0 754512656#1 -754512656#1"/>
    </vehicle>
    <vehicle id="25" depart="50.00">
        <route edges="-744556821#2 -744556821#1 -744556821#0 -744556822#2 -744556822#1 -744556822#0 -1086864394#0 -1102868553#4 -1102868553#3 -1102868553#2 -1102868553#1 -1102868553#0 383253303#0 -88239056#10 -88239056#9 -88239056#8 -88239056#7 -88239056#6 -88239056#5 -88239056#4 -88239056#3 -88239056#2 -88239056#1 -88239056#0 1436346382#3 1192804910#0 1192804910#1 383253313 1011679139 1019021466 1011679138#0 88388242#0 88388242#1 88388242#2 88388242#3 -535181021#2 -535181021#1"/>
    </vehicle>
    <vehicle id="26" depart="52.00">
        <route edges="-622931035#0 622931034#1 622930930 -254466864#3 -254466864#2 542052317#0 622930949 799471546#2 799471546#3 799471546#4"/>
    </vehicle>
    <vehicle id="27" depart="54.00">
        <route edges="197825159#1 -197825159#1 -448001976#0 1011679137#1 667711311 1011679140#0 1011679140#1 1011679140#2 -1192804910#1 -1192804910#0 1192804909#0 1192804909#1 1192804909#2 1435259978 1435259976#0 1435259976#1 -197825162#1 -197825162#0 -1467211933 -1467211932 1477359791"/>
    </vehicle>
    <vehicle id="28" depart="56.00">
        <route edges="-383253303#6 383253303#6 1011679142#1 197827534#0 1222442417#0 1222442417#1 1222442417#2 1222442417#3 1222442417#4 1222442418#0 1222442418#1 1308981285#0 1308981285#1 1308981285#2 1308981285#3 180240419#0 180240419#1 180240419#2 180240419#3 180240419#4 180240419#5 -1041331818 542052317#3"/>
    </vehicle>
    <vehicle id="29" depart="58.00">
        <route edges="-332272861#0 -180240419#0 -1308981285#3 -1308981285#2 -1308981285#1 -1308981285#0 1222442419#0 1222442419#1 1222442419#2 368162328 1039314823#1 1039314823#2 1011679142#0 -383253303#6 -383253303#5 -383253303#4 -383253303#3 -383253303#2 -383253303#1 -88239056#10 -88239056#9 -88239056#8 -88239056#7 -88239056#6 -88239056#5 760085752 -991856554 991856554 -760085752"/>
    </vehicle>
    <vehicle id="30" depart="60.00">
        <route edges="991855758 384989621#8 -313694234#3 -313694234#2 -313694234#1 -313694234#0 46513486#5 46513486#6 -1019021467 -88388435#1 -88388435#0 -1019021466 -140144915#3 -140144915#2 -140144915#1 -140144915#0 -1019014636 667711311 1011679136#0 1011679136#1 1011679136#2 -197827530#8 -197827530#7 -197827530#6 -197827530#5 -197827530#4 -197827530#3 197827530#3"/>
    </vehicle>
    <vehicle id="31" depart="62.00">
        <route edges="1086866974#1 -1086866977 1086866976#1 -1201447522#1 -1201447522#0 -1086864394#6 -1086864394#5 -1086864394#4 -1086864394#3 -1086864394#2 -1086864394#1 -1086864394#0 -1102868553#4 -1102868553#3 -1102868553#2 -1102868553#1 -1102868553#0 383253303#0 -88239056#10 -88239056#9 -88239056#8 -88239056#7 -88239056#6 -88239056#5 -88239056#4 -88239056#3 -88239056#2 -88239056#1 -88239056#0 1436346382#3 1192804910#0 1192804910#1 383253313 1011679139 1019021466 1011679138#0 88388242#0 88388242#1 88388242#2 88388242#3 -535181021#2 -607226671#12 -607226671#11 -607226671#10 -607226671#9 -607226671#8 -607226671#7 -607226671#6 -607226671#5 -607226671#4 -607226671#3 -607226671#2 -607226671#1 -607226671#0 607226672#6 46513832#11 46513832#12 46513832#13 46513832#14"/>
    </vehicle>
    <vehicle id="32" depart="64.00">
        <route edges="623215060 607226670#1 798431727 -798431726#0 -607226671#6 -623214540#4 -623214540#3 -623214540#2 -623214540#1 623214540#1"/>
    </vehicle>
    <vehicle id="33" depart="66.00">
        <route edges="-542052316#1 -745182517#2 -1041851496#2 1041851498 542052316#2 1058971483 383253303#4 383253303#5 383253303#6 1011679142#1 197827534#0 197827534#1 1039314823#0 1039314823#1 197827530#0 197827530#1 197827530#2 197827530#3 197827530#4 197827530#5 197827530#6 197827530#7 197827530#8 1094032211#0 1094032211#1 -197825163#13 -197825163#12 -197825163#11 -197825163#10 -197825163#9 607226672#0 607226672#1 607226672#2 607226672#3 607226672#4 607226672#5 607226672#6 46513832#11 46513832#12 -1046168943"/>
    </vehicle>
    <vehicle id="34" depart="68.00">
        <route edges="-623215002#0 623214892#3 623214892#4 623214892#5 1011679136#0 1011679136#1 1011679136#2 1094032211#0 -1051321870 623214487 623215092#0 623214913 -197825164#1 -623214568"/>
    </vehicle>
    <vehicle id="35" depart="70.00">
        <route edges="-477341704#1 477341704#1 477341704#2 -88239056#8 -88239056#7 -88239056#6 -88239056#5 -88239056#4 -88239056#3 -88239056#2 -88239056#1 -88239056#0 1436346382#3 1192804909#0 1192804909#1 1192804909#2 1435259978 1435259976#0 1435259976#1 1435259976#2 1021088242#0 1021088242#1 1021088242#2 1021088242#3 1021088242#4 607248281#0 607248281#1 607248281#2 821119768"/>
    </vehicle>
    <vehicle id="36" depart="72.00">
        <route edges="734392343#0 -744510029#4 -744510029#3 -744510028#0 -542052316#7 -542052316#6 -542052316#5 760082569 383253303#6 1011679142#1 197827534#0 197827534#1 1039314823#0 1039314823#1 197827530#0 197827530#1 197827530#2 197827530#3 197827530#4 197827530#5 197827530#6 197827530#7 197827530#8 1094032211#0 1094032211#1 -197825163#13 -197825163#12 -197825163#11 -623215347#2 -623215347#1 760446551#0 760446551#1 -829587319 -623214542 623214540#0 623214540#1 623214688 623215344#1 -623215344#1"/>
    </vehicle>
    <vehicle id="37" depart="74.00">
        <route edges="197825163#1 -197825163#1 -623214817 197825164#7 1011679141#2 1011679141#3 1011679141#4 1011679141#5 -197827530#8 -197827530#7 -197827530#6 -197827530#5 -197827530#4 -197827530#3 -197827530#2 -197827530#1 -197827530#0 1039314823#2 1011679142#0 -383253303#6 -383253303#5 -383253303#4 -383253303#3 -383253303#2 -383253303#1 -383253303#0 1102868553#0 1102868553#1 1102868553#2 1102868553#3 1102868553#4 1086864394#0 1086864394#1 1086864394#2 1086864394#3 1086864394#4 1086864394#5 1086864394#6 771385440#0 771385440#1 -771385440#1"/>
    </vehicle>
    <vehicle id="38" depart="76.00">
        <route edges="759732932#1 1205403611 -1205403611 -759732932#1 -759732932#0 197827530#3 197827530#4 197827530#5 197827530#6 197827530#7 197827530#8 -1011679136#2 -1011679136#1 -1011679136#0 1011679140#0 1011679140#1 1011679140#2 383253313 1011679139 1019021466 1011679138#0 1011679138#1"/>
    </vehicle>
    <vehicle id="39" depart="78.00">
        <route edges="-622930930 673597053 542052318#1 542052318#2 542052318#3 542052318#4 -760445531#3 -760445531#2 -622931128#1 -622931128#0 -622930866"/>
    </vehicle>
    <vehicle id="40" depart="80.00">
        <route edges="1089037745#0 1089037745#1 1089037745#2 1089037745#3 1019021463#0 1019021463#1 1436346383 1436346382#0 1436346382#1 1436346382#2 1436346382#3 1192804910#0 1192804910#1 -1011679140#2 -1011679140#1 -1011679140#0 1011679136#0 1011679136#1 1011679136#2 -197827530#8 -197827530#7 -197827530#6 623214529#0 -623214529#0"/>
    </vehicle>
    <vehicle id="41" depart="82.00">
        <route edges="1192804910#1 383253313 1011679139 1019021466 1011679138#0 1011679138#1 1011679138#2 759781525#0"/>
    </vehicle>
    <vehicle id="42" depart="84.00">
        <route edges="-759732932#1 -759732932#0 -197827530#2 -197827530#1 -197827530#0 1039314823#2 1011679142#0 1011679142#1 197827534#0 1222442417#0 1222442417#1 1222442417#2 1222442417#3 1222442417#4 1222442418#0 1222442418#1 1308981285#0 1308981285#1 1308981285#2 1308981285#3 180240419#0 180240419#1 180240419#2 -1046168958 1046168959#0 -799471543#0 -542052318#3 -542052318#2"/>
    </vehicle>
    <vehicle id="43" depart="86.00">
        <route edges="992497489#2 -134768405#1 -134768405#0 1222442417#3 103536164#2 1222442419#2 368162328 1039314823#1 1039314823#2 1011679142#0 -383253303#6 -383253303#5 -383253303#4 -383253303#3 -383253303#2 -383253303#1 -383253303#0 1102868553#0 1102868553#1 1102868553#2 1102868553#3 1102868553#4 1086864394#0 1086864394#1 1086864394#2 1086864394#3 1086864394#4"/>
    </vehicle>
    <vehicle id="44" depart="88.00">
        <route edges="-1291378678 200131096#1 200131096#2 -140163061#3 -140163061#2 -140163061#1 200129958#0 200129958#1 200129958#2 1368746124 1089037745#2 1089037745#3 1019021463#0 140144897 764081939#0 764081939#1 764081939#2 622943507 622943502#0 622943502#1 383253312 1102868553#4 1086864394#0 1086864394#1 1086864394#2 1086864394#3 1086864394#4 1086864394#5 1086864394#6 -1086864394#6 -1086864394#5"/>
    </vehicle>
    <vehicle id="45" depart="90.00">
        <route edges="-1381966239 799471546#1 -622930949 -542052317#0 -254466864#1 -254466864#0 -180240419#3 -180240419#2 -180240419#1 -180240419#0 -1308981285#3 -1308981285#2 -1308981285#1 -1308981285#0 1222442419#0 1222442419#1 1222442419#2 368162328 1039314823#1 197827530#0 197827530#1 197827530#2 197827530#3 197827530#4 197827530#5 197827530#6 197827530#7 197827530#8 1094032211#0 -1051321870 623214922#0 623214922#1 197825163#12 197825163#13"/>
    </vehicle>
    <vehicle id="46" depart="92.00">
        <route edges="622931035#1 -799471542 542052318#3 542052318#4 -1046168959#1 -1046168959#0 1046168958 -180240419#2 -180240419#1 -180240419#0 -1308981285#3 -1308981285#2 -1308981285#1 -1308981285#0 1222442419#0 1222442419#1 1222442419#2 368162328 1039314823#1 1039314823#2 1011679142#0 -383253303#6 -383253303#5 -383253303#4 -383253303#3 -383253303#2 -383253303#1 -88239056#10 -88239056#9 -88239056#8 -88239056#7 -88239056#6 -88239056#5 -88239056#4"/>
    </vehicle>
    <vehicle id="47" depart="94.00">
        <route edges="-1107089134 733486383#0 -733486383#0 1107089134 -1363267149#2 -1363267149#1 -1363267149#0 -1201447522#1 -1201447522#0 -1086864394#6 -1086864394#5 -1086864394#4 -1086864394#3 -1086864394#2 -1086864394#1 -1086864394#0 -1102868553#4 -1102868553#3 -1102868553#2 -1102868553#1 -1102868553#0 383253303#0 -88239056#10 -88239056#9 -88239056#8 -88239056#7 -88239056#6 -88239056#5 -88239056#4 -88239056#3 -88239056#2 -88239056#1 -88239056#0 1436346382#3 1192804910#0 1192804910#1 383253313 1011679139 1019021466 88388435#0 88388435#1 1019021467 -46513486#6 -46513486#5 313694234#0 313694234#1 313694234#2 313694234#3 -384989621#8 -384989621#7 -384989621#6 -384989621#5 -384989621#4 899147111#0 -991855761 -760108261#1"/>
    </vehicle>
    <vehicle id="48" depart="96.00">
        <route edges="992497489#0 992497489#1 992497489#2 134768405#2 494080674#0 744510029#0 744510029#1 744510029#2 744510029#3 744510029#4 734392343#1 734392343#2 -733486383#1 -733486383#0 1107089134"/>
    </vehicle>
    <vehicle id="49" depart="98.00">
        <route edges="88388242#2 88388242#3 88388242#4 88388242#5 88388242#6 -140144915#0 -1019014636 667711311 1011679136#0 1011679136#1 1011679136#2 -197827530#8 -197827530#7 -197827530#6 -197827530#5 -197827530#4 -197827530#3 -197827530#2 -197827530#1 -197827530#0 1039314823#2 1011679142#0 -383253303#6 -760082569 542052316#5 542052316#6 542052316#7 744510028#0 744510028#1 744510028#2"/>
    </vehicle>
    <vehicle id="50" depart="100.00">
        <route edges="-1019021465#0 -1019021467 -88388435#1 -88388435#0 1011679138#0 88388242#0 88388242#1 88388242#2 88388242#3 -535181021#2 535181021#2"/>
    </vehicle>
    <vehicle id="51" depart="102.00">
        <route edges="254466864#2 -254466864#2 -254466864#1 -254466864#0 -180240419#3 -180240419#2 -180240419#1 -180240419#0 -1308981285#3 -1308981285#2 -1308981285#1 -1308981285#0 1222442419#0 1222442419#1 1222442419#2 368162328 1039314823#1 1039314823#2 1011679142#0 -383253303#6 -760082569 542052316#5 542052316#6 542052316#7 744510028#0 744510029#3 1152605213 1152605214"/>
    </vehicle>
    <vehicle id="52" depart="104.00">
        <route edges="-622931035#0 622931034#1 673597053 542052318#1 542052318#2 542052318#3 542052318#4 -1046168959#1 -1046168959#0 1046168958 -180240419#2 -180240419#1 -180240419#0 -1308981285#3 -1308981285#2 -1308981285#1 -1308981285#0 1222442419#0 1222442419#1 1222442419#2 368162328 1039314823#1 197827530#0 197827530#1 197827530#2 197827530#3 197827530#4 197827530#5"/>
    </vehicle>
    <vehicle id="53" depart="106.00">
        <route edges="-140144911#1 140144911#1 140144911#2 46513486#2 46513486#3 46513486#4 46513486#5 46513486#6 1019021465#0 1019021465#1 1019021465#2 -1467211932 1477359791 1368974881 1435259977 1435259975 96073619 764081939#0 764081939#1 764081939#2 622943507 622943502#0 622943502#1 383253312 1102868553#4 -744556821#6 -744556821#5 -744556821#4 -744556821#3 991854148#0 -991854148#0"/>
    </vehicle>
    <vehicle id="54" depart="108.00">
        <route edges="-857261834#1 857261835#0 857261835#1 857261837#0 -857261838 -1108424966 1108424966 857261838"/>
    </vehicle>
    <vehicle id="55" depart="110.00">
        <route edges="734392342 1152605212 -1152605212 -734392342 734392343#5 734392343#6 754451838 -744510028#1 -744510028#0 -542052316#7 -542052316#6 -542052316#5 760082569 383253303#6 1011679142#1 197827534#0 197827534#1 1039314823#0 1039314823#1 197827530#0 197827530#1 197827530#2 197827530#3 197827530#4 197827530#5 197827530#6 197827530#7 -623214529#1"/>
    </vehicle>
    <vehicle id="56" depart="112.00">
        <route edges="-992625189 -494080677#0 -134768405#4 -134768405#3 -134768405#2 -134768405#1 -134768405#0 1222442417#3 103536164#2 1222442419#2 368162328 1039314823#1 197827530#0 197827530#1 197827530#2 197827530#3 197827530#4 197827530#5 197827530#6 197827530#7 197827530#8 1094032211#0 1094032211#1 -197825163#13 -197825163#12 -197825163#11 -197825163#10 -197825163#9 607226672#0 607226672#1 607226672#2 607226672#3 607226672#4 -623214482 -46513832#7 -46513832#6 -46513832#5"/>
    </vehicle>
    <vehicle id="57" depart="114.00">
        <route edges="759519031#1 -477341672#3 -477341672#2 -477341672#1 -771381626#1 -771381626#0 -477341709#2 477341704#0 477341704#1 477341704#2 88239056#9 88239056#10 -383253303#0 1102868553#0 1102868553#1 1102868553#2 1102868553#3 1102868553#4 1086864394#0 744556822#0 744556822#1 744556822#2 744556822#3"/>
    </vehicle>
    <vehicle id="58" depart="116.00">
        <route edges="-623214770 623214770 -623214527#0 -623214529#0 -197827530#5 -197827530#4 -197827530#3 -197827530#2 -197827530#1 197827530#1"/>
    </vehicle>
    <vehicle id="59" depart="118.00">
        <route edges="134768405#0 103536164#0 103536164#1 103536164#2 1222442419#2 368162328 1039314823#1 1039314823#2 1011679142#0 -383253303#6 -383253303#5 -383253303#4 -383253303#3 -383253303#2"/>
    </vehicle>
    <vehicle id="60" depart="120.00">
        <route edges="607226670#1 798431727 -798431726#0 607226671#7 607226671#8 607226671#9 607226671#10 607226671#11 607226671#12 535181021#2 88388242#4 88388242#5 88388242#6 -140144915#0 -1019014636 667711311 1011679136#0 1011679136#1 1011679136#2 -197827530#8 -197827530#7 -197827530#6 -197827530#5 -197827530#4 -197827530#3 -197827530#2 -197827530#1 -197827530#0 1039314823#2 1011679142#0 1011679142#1 197827534#0 1222442417#0 1222442417#1 1222442417#2 1222442417#3 1222442417#4 1222442418#0 1222442418#1 1308981285#0 1308981285#1 1308981285#2 1308981285#3 607226675#0 -1177493598 -622931081 622931081 1177493598"/>
    </vehicle>
    <vehicle id="61" depart="122.00">
        <route edges="607248282 607248283 -140163061#1 200129958#0 200129958#1 200129958#2 1368746124 1089037745#2 1089037745#3 1019021463#0 1019021463#1 1436346383 1436346382#0 1436346382#1 1436346382#2 1436346382#3 1192804910#0 1192804910#1 383253313 1011679139 1019021466 1011679138#0 88388242#0 88388242#1 88388242#2 88388242#3 -535181021#2 -607226671#12 -607226671#11 -607226671#10 1108424966"/>
    </vehicle>
    <vehicle id="62" depart="124.00">
        <route edges="-1011679136#0 1011679136#0 1011679136#1 1011679136#2 1094032211#0 1094032211#1 -197825163#13 -197825163#12 -197825163#11 -197825163#10 -197825163#9 607226672#0 607226672#1 623214733 -623214741#2 -623214741#1 -623214741#0 46513832#5 623214608 -623215374#2"/>
    </vehicle>
    <vehicle id="63" depart="126.00">
        <route edges="-1039015711#2 -1039015711#1 1039015712 477341707#0 477341707#1 477341707#2 477341707#3 -477341706#0 1046168955 477341665#0 477341665#1 477341665#2 477341665#3 771609060#0 771609060#1"/>
    </vehicle>
    <vehicle id="64" depart="128.00">
        <route edges="734392343#4 734392343#5 734392343#6 754451838 -744510028#1 -744510028#0 -542052316#7 -542052316#6 -542052316#5 760082569 383253303#6 1011679142#1 197827534#0 197827534#1 1039314823#0 1039314823#1 197827530#0 197827530#1 197827530#2 197827530#3 197827530#4 197827530#5 197827530#6 197827530#7 197827530#8 1094032211#0 -1051321870 623214487 623215092#0 623214913 197825164#2 197825160#1 623215351#0 623215351#1"/>
    </vehicle>
    <vehicle id="65" depart="130.00">
        <route edges="-623214913 -623215092#0 1046168949 623214922#1 -197825161#5 -197825161#4 -197825161#3 -197825161#2 -197825161#1 -197825161#0 -88388242#6 -88388242#5 -88388242#4 -88388242#3 623215339 857261832#0 1105106248 -1105106248"/>
    </vehicle>
    <vehicle id="66" depart="132.00">
        <route edges="734392343#3 -734392343#3 -733486383#1 -733486383#0 1107089134 -1363267149#2 -1363267149#1 -1363267149#0 -1201447522#1 -1201447522#0 -1086864394#6 -1086864394#5 -1086864394#4 -1086864394#3 -1086864394#2 -1086864394#1 -1086864394#0 -1102868553#4 -1102868553#3 -1102868553#2 -1102868553#1 -1102868553#0 383253303#0 -88239056#10 -88239056#9 -88239056#8 -88239056#7 -88239056#6 -88239056#5 -88239056#4 -88239056#3 -88239056#2 -88239056#1 -88239056#0 1436346382#3 1192804910#0 1192804910#1 383253313 1011679139 1019021466 1011679138#0 88388242#0 88388242#1 88388242#2 88388242#3 -535181021#2 -607226671#12 -607226671#11 -607226671#10 -607226671#9 857261828#0 857261829"/>
    </vehicle>
    <vehicle id="67" depart="134.00">
        <route edges="-1213575875 -542052316#3 -542052316#2 -1041851498 -1041851496#1 1041851497"/>
    </vehicle>
    <vehicle id="68" depart="136.00">
        <route edges="-1134736942 991854146#2 -744556822#1 -744556822#0 -1086864394#0 -1102868553#4 -1102868553#3 -1102868553#2 -1102868553#1 -1102868553#0 383253303#0 383253303#1 383253303#2 383253303#3 383253303#4 383253303#5 383253303#6 1011679142#1 197827534#0 1222442417#0 1222442417#1 1222442417#2 1222442417#3 1222442417#4 1222442418#0 1222442418#1 1308981285#0 1308981285#1 1308981285#2 1308981285#3 180240419#0 180240419#1 180240419#2 -1046168958 1046168959#0 -799471543#0 -542052318#3 -542052318#2 -992497499 622931035#1"/>
    </vehicle>
    <vehicle id="69" depart="138.00">
        <route edges="607226671#2 607226671#3 -623215223#1 -623215221#1 1046168946 -607226672#2 -607226672#1 -607226672#0 197825163#9 197825164#0 197825164#1 197825164#2 197825164#3 197825164#4 197825164#5 -197825164#5"/>
    </vehicle>
    <vehicle id="70" depart="140.00">